Version 4
SHEET 1 1100 720
WIRE 80 176 136 176
WIRE 320 96 376 96
WIRE 504 32 560 32
WIRE 688 176 744 176
FLAG 80 176 vin
FLAG 504 32 vdd
FLAG 320 96 v1
FLAG 688 176 vout
TEXT 58 146 Left 2 Vin
TEXT 48 198 Left 2 DC 0.9
TEXT 48 222 Left 2 AC 1
TEXT 254 78 Left 2 M1
TEXT 246 282 Left 2 source/body to ground
TEXT 430 54 Left 2 Rd = 5k
TEXT 640 74 Left 2 Q1 MAT02
TEXT 612 224 Left 2 Re = 2k
TEXT 852 224 Left 2 Cl = 1u
TEXT 490 8 Left 2 Vdd = 5V
TEXT 56 432 Left 2 !Vin vin 0 DC 0.9 AC 1
TEXT 56 464 Left 2 !Vdd vdd 0 DC 5
TEXT 56 496 Left 2 !Rd vdd v1 5k
TEXT 56 528 Left 2 !M1 v1 vin 0 0 nmos L=1u W=100u
TEXT 56 560 Left 2 !Q1 vdd v1 vout MAT02
TEXT 56 592 Left 2 !Re vout 0 2k
TEXT 56 624 Left 2 !Cl vout 0 1u
TEXT 504 432 Left 2 !.lib level1_mos.cir
TEXT 504 464 Left 2 !.model MAT02 NPN(IS=0.6p BF=500 VAF=150)
TEXT 504 496 Left 2 !.op
LINE Normal 72 192 72 240
LINE Normal 64 216 80 216
LINE Normal 68 232 76 232
LINE Normal 300 144 300 208
LINE Normal 312 144 312 208
LINE Normal 312 160 352 160
LINE Normal 312 192 352 192
LINE Normal 352 160 352 96
LINE Normal 352 192 352 256
LINE Normal 468 96 480 72
LINE Normal 480 72 504 120
LINE Normal 504 120 528 72
LINE Normal 528 72 552 120
LINE Normal 552 120 564 96
LINE Normal 656 144 656 208
LINE Normal 656 160 688 128
LINE Normal 656 192 688 224
LINE Normal 682 218 670 198
LINE Normal 670 198 690 204
LINE Normal 672 224 704 224
LINE Normal 664 224 656 224
LINE Normal 668 288 680 264
LINE Normal 680 264 704 312
LINE Normal 704 312 728 264
LINE Normal 728 264 740 288
LINE Normal 816 240 864 240
LINE Normal 816 256 864 256
